&SGS_TKE
dosmagor = .true.
/

&PARAMETERS

caseid ='144x144x64_1km_10s',

nrestart = 0,

OCEAN = .true.,
doseawater = .true.,
LES_S = .false.

dosgs		= .true.,
dodamping 	= .true.,
doupperbound  	= .true.,
docloud 	= .true.,
doprecip 	= .true., 
dolongwave	= .true.,
doshortwave	= .true.,
dosurface 	= .true.,
dolargescale 	= .true.,
doradforcing    = .false.,
dosfcforcing    = .true.,
docoriolis 	= .false.,
donudging_uv    = .true.,
donudging_tq    = .false.,

doisccp = .false.,

tauls = 7200.,

SFC_FLX_FXD    = .false.,
SFC_TAU_FXD    = .false.,

longitude0 = 155.,
latitude0 = -2.,

nrad = 90,

doseasons = .true.,

dx = 	1000.,
dy = 	1000.,

dt = 	10.,

day0=306.25,

nstop 	= 1036800,
nprint 	= 180,
nstat 	= 8640,
nstatfrq= 96,

dodamping_w = .true.,
damping_w_cu = 0.6,

doSAMconditionals = .false.
dosatupdnconditionals = .false.


nsave2D	= 2160,
nsave2Dstart	= 999999990, 
nsave2Dend	= 999164000,
save2Davg = .false.

nsave3D	= 2160,
nsave3Dstart	= 99999999,
nsave3Dend	= 999999999,
save3Dbin      = .false.

/ 



