&SGS_TKE
  tk_factor = 0.001
  doaddTKEdiss = .true.
/

&MICRO_SAM1MOM
  icefall_fudge=0.8
  doprecipdiss = .true.
  donograupel = .true. ! no graupel, only snow
  doeiscld = .true.
  tprmin = 273.16    ! Minimum temperature for rain, K
  tprmax = 278.16    ! Maximum temperature for snow+graupel, K
/

&SLM
readinitsoil = .true.
readland = .true.
readsoil = .true.
readsnow = .true.
readsnowt = .true.,

dorunoff = .true.

soilinitfile = '../RUN_DATA/BIN_D/soil_init_384x384_EUSA_GFS.bin'
snowfile = '..//RUN_DATA/BIN_D/snow_384x384_EUSA_GFS.bin'
snowtfile = '../RUN_DATA/BIN_D/snowt_384x384_EUSA_GFS.bin'

soilfile = '../RUN_DATA/BIN_D/soil_384x384_EUSA.bin'
landtypefile = '../RUN_DATA/BIN_D/landtype_384x384_EUSA.bin'
LAIfile = '../RUN_DATA/BIN_D/lai_384x384_EUSA.bin'
/


&PARAMETERS

caseid ='384x384x72_9km_10s'

nrestart = 0,

!nstop    = 8640, ! 1 day
nstop    = 17280, ! 2 days
!nstop    = 25920, ! 3 days
!nstop    = 34560, ! 4 days
!nstop    = 43200, ! 5 days
nprint   = 60,
nstat    = 360,
nstatfrq = 12,

dolatlon = .true.
doregion = .true.
donudge3D = .true.

dotc = .true.

date0 = 20260125000000,

dodatefilename = .true.

readlatlon = .true.
latlonfile = '../RUN_DATA/BIN_D/latlon_384x384_EUSA.txt'

dobufferzonex = .true.,
dobufferzoney = .true.,
bufferzonex = 0.1
bufferzoney = 0.1

dofcast = .false.
dofcast_ice = .false.

doimplicitdiff = .true.

dt = 10.0,

dodamping = .true.,
dodamping_w = .true.,
dodamping_u = .true.,
damping_u_cu = 0.25
damping_w_cu = 0.3

dosaferestart = .false.
nrestart_steps = 8640
restart_sep = .true.,

dodebug = .false.

doterrain= .true.
doseawater = .true.

ISLAND = .true.,
readinit = .true.
readsst = .true.
readlandmask = .true.
readterr = .true.
reado3 = .true.

initfile = '../RUN_DATA/BIN_D/init_GFS_EUSA.bin'

sstfile = '../RUN_DATA/BIN_D/sst_384x384_EUSA_GFS.bin'

landmaskfile = '../RUN_DATA/BIN_D/landmask_384x384_EUSA.bin'
terrainfile = '../RUN_DATA/BIN_D/terrain_384x384_EUSA.bin'
o3file = '../RUN_DATA/BIN_D/ozone_GFS_2024021618-2024021718_EUSA.bin'

donudging_uv = .false.
donudging_w = .false.
donudging_t = .false.
donudging_q = .false.

nudge3D_dir = '../RUN_DATA/NUDGE'
nudge3D_file = '../RUN_DATA/NUDGE/nudge_GFS_EUSA_FILELIST.ascii'
!nudge3D_tau = 21600.
!nudge3D_tau = 43200.
nudge3D_tau = 86400.

nens = 0

!perturb_type = -1,

dofplane = .false.
docoriolis = .true.,
docoriolisz = .true.,

doseasons = .true.,
dolongwave      = .true.,
doshortwave     = .true.,
doradlat = .true.,
doradlon = .true.,
doradavg = .false.
nrad = 60,

dodynamicocean = .false.,

nxco2 = 1.,
dosgs           = .true.,
doupperbound    = .false.,
docloud         = .true.,
doprecip        = .true.,
dosurface       = .true.,
dolargescale    = .false.,
doradforcing    = .false.,
dosfcforcing    = .false.,

tauls = 86400.,

SFC_FLX_FXD    = .false.,
SFC_TAU_FXD    = .false.,

doisccp = .false.,

doSAMconditionals = .false.
dosatupdnconditionals = .false.

nsave2D = 60,
nsave2Dstart    = 0,
nsave2Dend      = 999999999,
save2Dsep = .true.
save2Davg = .true.
save2Drada = .true.
snow2Dout = .true.

nsave2DL = 60,
nsave2DLstart    = 0,
nsave2DLend      = 999999999,
save2DLsep = .true.
save2DLavg = .true.

nsaveM = 360,
nsaveMstart    = 99999999,
nsaveMend      = 999999999,
saveMsep = .true.
saveMavg = .false.

nsave2DZ = 360,
nsave2DZstart    = 9999990,
nsave2DZend      = 999999999,
save2DZsep = .true.

nsave3D = 60,
nsave3Dstart    = 0,
nsave3Dend      = 999999999,
save3Dbin      = .false.
nfiles3D = 16

dostatcoars = .false.
nstatcoars = 1,
nstatcoarsstart    = 0,
nstatcoarsend      = 999999999,

nstatmom = 120,
nstatmomstart    = 99999999,
nstatmomend      = 999999999,
savemomsep = .true.

nmovie       = 60,
nmoviestart  = 99999990
nmovieend    = 99960480

/


