&PARAMETERS

caseid ='576x288x30_30s'

earth_factor = 1.

nrestart = 0,

!dodebug = .true.

perturb_type = 75,

dt = 30.,
day0=0.,
nstop    = 86400,
nelapse  = 86400, 
nprint   = 60,
nstat    = 2880,
nstatfrq = 1,

doglobal =.true.
doterrain= .false.

restart_sep = .false.,
!restart_skip = 9,


dofplane = .false.
docoriolis = .true.,
docoriolisz = .true.,

doseasons = .false.,

doradlat = .true.,
doradlon = .true.,
nrad = 60,

tabs_s = 300.

OCEAN = .true.,

dosgs           = .true.,
dodamping       = .false.,
doupperbound    = .false.,
docloud         = .false.,
doprecip        = .false.,
dolongwave      = .false.,
doshortwave     = .false.,
dosurface       = .false.,
dolargescale    = .false.,
doradforcing    = .false.,
dosfcforcing    = .false.,
donudging_uv    = .false.,
donudging_tq    = .false.,

tauls = 86400.,

SFC_FLX_FXD    = .false.,
SFC_TAU_FXD    = .false.,

doisccp = .false.,

doSAMconditionals = .false.
dosatupdnconditionals = .false.

nsave2D = 2880,
nsave2Dstart    = 0,
nsave2Dend      = 999999999,
save2Dsep = .true.
save2Davg = .false.

nsave3D = 2880,
nsave3Dstart    = 0,
nsave3Dend      = 999999999,
save3Dbin      = .false.

nmovie       = 60,
nmoviestart  = 99999990
nmovieend    = 99960480

/


